** CalculiX: FEM shell mesh + Pad001 dual elset (full model, BESO optimizes design_space only)
*Node, NSET=Nall
1, -2986.552986266, 23697.1412862, 12000
2, -2986.552986266, 23697.1412862, -14000
3, -21970.20888407, -9183.095417735, 12000
4, -21970.20888407, -9183.095417735, -14000
5, 2986.552986266, 23697.1412862, 12000
6, 2986.552986266, 23697.1412862, -14000
7, -18937.89835865, -14435.19989037, 12000
8, -18937.89835865, -14435.19989037, -14000
9, 21970.20888407, -9183.095417735, 12000
10, 18937.89835865, -14435.19989037, 12000
11, 3250, 0, 12000
12, 18937.89835865, -14435.19989037, -14000
13, 21970.20888407, -9183.095417735, -14000
14, 3250, 0, 88000
15, 28002.15340551, -9238.847579652, 12000
16, 27478.39558671, -8969.817045627, 12000
17, 26930.79020075, -8753.419219876, 12000
18, 26364.6109902, -8591.738120922, 12000
19, 25785.31056336, -8486.330828032, 12000
20, 25198.46790503, -8438.212475287, 12000
** ... 137835 like lines cut


** Face elements
**
** Shell elements (all retained; nondesign_space not removed)
*Element, TYPE=S6, Elset=design_space
3420, 6635, 6652, 6599, 6674, 6675, 6676
3421, 6600, 6653, 6634, 6677, 6678, 6679
3422, 6593, 6616, 6615, 6680, 6681, 6682
3423, 6634, 6653, 1506, 6678, 6683, 6684
3424, 1525, 6652, 6635, 6685, 6674, 6686
3425, 6610, 6613, 6591, 6687, 6688, 6689
3426, 6590, 6614, 6609, 6690, 6691, 6692
3427, 1467, 6605, 1466, 6693, 6694, 1475
3428, 1469, 6606, 1468, 6695, 6696, 1477
3429, 1504, 6611, 1505, 6697, 6698, 1514
3430, 1524, 6612, 1523, 6699, 6700, 1533
3431, 6615, 6616, 6584, 6681, 6701, 6702
3432, 6611, 6634, 1505, 6703, 6704, 6698
3433, 1524, 6635, 6612, 6705, 6706, 6699
3434, 1498, 6657, 6644, 6707, 6708, 6709
3435, 6645, 6656, 1517, 6710, 6711, 6712
3436, 6603, 6623, 6592, 6713, 6714, 6715
3437, 6592, 6623, 6604, 6714, 6716, 6717
3438, 1501, 6613, 1502, 6718, 6719, 1511
3439, 1521, 6614, 1520, 6720, 6721, 1530
** ... 11875 like lines cut
*Element, TYPE=S6, Elset=nondesign_space
3636, 1543, 6, 6979, 1552, 6988, 6989
3637, 6979, 6, 1556, 6988, 1558, 6990
3638, 1556, 2, 6979, 1557, 6991, 6990
3639, 6979, 2, 1471, 6991, 1480, 6992
3640, 1553, 5, 6980, 1555, 6993, 6994
3641, 6980, 5, 1536, 6993, 1544, 6995
3642, 6980, 1, 1553, 6996, 1554, 6994
3643, 1464, 1, 6980, 1472, 6996, 6997
3644, 1542, 6981, 6982, 6998, 6999, 7000
3645, 6982, 6981, 1470, 6999, 7001, 7002
3646, 6983, 6984, 1537, 7003, 7004, 7005
3647, 1465, 6984, 6983, 7006, 7003, 7007
3648, 1541, 6982, 6985, 7008, 7009, 7010
3649, 6985, 6982, 1469, 7009, 7011, 7012
3650, 1540, 6985, 6986, 7013, 7014, 7015
3651, 6986, 6985, 1468, 7014, 7016, 7017
3652, 1471, 6981, 6979, 7018, 7019, 6992
3653, 6979, 6981, 1543, 7019, 7020, 6989
3654, 1539, 6986, 6987, 7021, 7022, 7023
3655, 6987, 6986, 1467, 7022, 7024, 7025
** ... 55523 like lines cut
**
*Physical constants, ABSOLUTE ZERO=0, STEFAN BOLTZMANN=5.670374419e-11
*Material, name=Material-shell
*Elastic
210000.0, 0.27
*Density
7.833e-09
**
** BESO: dual shell sections (design_space / nondesign_space)
*Shell section, Elset=design_space, Material=Material-shell
2.0
*Shell section, Elset=nondesign_space, Material=Material-shell
2.0
**
*Step
*Static
*Boundary
79,1,3,0
*Cload
11710,1,281000.0
*Node print, nset=Nall, frequency=1
U
*El print, elset=design_space, frequency=1
S
*End step
